FoamFile { format ascii; class dictionary; object physicalProperties; }
viscosityModel constant;
nu 1e-05;
